
[General]
network = eeepowerlink.networks.EEE_SwitchedDuplexLAN
sim-time-limit = 120s
tkenv-plugin-path = ../../../etc/plugins
output-scalar-file = ${resultdir}/eeeswitch-${configname}-${runnumber}.sca
output-vector-file = ${resultdir}/eeeswitch-${configname}-${runnumber}.vec
**.vector-recording = true

**.debug=true

**.hostA.etherTrafGen.destAddress = ""
**.hostB.etherTrafGen.destAddress = "hostA"
**.etherTrafGen.sendInterval = 100ms #exponential(100ms)
**.etherTrafGen.startTime = 2ms
**.lpi_client.partialLPI = true

#**.mac.address = "auto"
**.hostA.mac.address = "aabbccddee01"
**.hostB.mac.address = "aabbccddee02"

**.switch.relayUnitType = "MACRelayUnitNP"
**.relayUnit.numCPUs = 2
**.relayUnit.processingTime = 2us

**.etherTrafGen.packetLength = intuniform(1400,1400)*1B

# EEE power parameters
**.powerConsumptionEEE = 58mW #Power consumption, in LPI
**.eeePowerIncrement = 293mW #Power consumption increment when going active

# no-EEE power parameters
**.powerConsumption = 351mW
**.noEeePowerIncrement = 124mW

#transitions
**.eeeTransitionPower = 0mW #decrement for LPI
**.pEeeTransitionPower = 0mW #decrement for partial LPI

# EEE partial power params
**.powerConsumptionPEEE = 188mW
**.pEeePowerIncrement = 163mW

**.sleepTime = 220us
**.quietTime = 22ms
**.wakeTime = 20.5us
**.refreshTime = 220us
**.partialWakeTime = 10us
**.partialSleepTime = 100us

