[General]
network = eeepowerlink.networks.EPL_tii2014
ned-path = ../networks:../nodes
output-scalar-file = ${resultdir}/epltii2014-${configname}-${runnumber}.sca
output-vector-file = ${resultdir}/epltii2014-${configname}-${runnumber}.vec
parallel-simulation = false
record-eventlog = false
sim-time-limit = 0.5s
**.vector-recording = true
**.result-recording-modes = default

**.dr = 100Mbps
**.debug = true

**.numberOfCN = 32
**.numberOfSwitch = 2 # max number of consecutive switches
**.n1 = 20
**.n2 = 10
**.MN.numberOfSubnetworks = 2
#**.MN.midLevelNode = 2
**.MN.multiplexed = false

**.lpi_client.debug = true

#**.Host0.CN.numHost = 0
#**.Host1.CN.numHost = 1
**.Subnet1_Host[*].CN.numHost = parentIndex()
**.Subnet2_Host[*].CN.numHost = (20 + parentIndex())
#**.Subnet3_Host[*].CN.numHost = (42 + parentIndex())
**.DC_CN1.CN.numHost = 30
**.DC_CN2.CN.numHost = 31
**.DC_CN3.controlledNodeEPL.CN.numHost = 32

**.mac.duplexMode = true
**.PLC.mac.address = "aabbccddee02"
#**.Host0.mac.address = "aabbccddee03"
#**.Host1.mac.address = "aabbccddee04"
**.Subnet*_Host[*].CN.autoSetMACaddress = true

**.Subnet1_Host[*].*.subNetIndex = 1
**.Subnet2_Host[*].*.subNetIndex = 2
#**.Subnet3_Host[*].*.subNetIndex = 3
**.DC_CN1.mac.address = "aabbccdde300"
**.DC_CN2.mac.address = "aabbccdde301"
**.DC_CN3.controlledNodeEPL.mac.address = "aabbccdde302"

#**.switch0.addressTableFile = "addresstable0.txt"
**.switch0.addressTableFile = "tii2014_addr_table/addresstable0.txt"
**.switch1.addressTableFile = "tii2014_addr_table/addresstable1.txt"
**.switch2.addressTableFile = "tii2014_addr_table/addresstable2.txt"
#**.switch4.addressTableFile = "addresstable4.txt"
#**.switch5.addressTableFile = "addresstable5.txt"
**.switch*.hasSubnetworks = true

**.CN.reqLength = 45B
**.CN.registerSAP = false

# EEE power parameters
**.powerConsumptionEEE = 58mW #Power consumption, in LPI
**.eeePowerIncrement = 293mW #Power consumption increment when going active

# no-EEE power parameters
**.powerConsumption = 351mW
**.noEeePowerIncrement = 124mW

#transitions
**.eeeTransitionPower = 0mW #decrement for LPI
**.pEeeTransitionPower = 0mW #decrement for partial LPI

# EEE partial power params
**.powerConsumptionPEEE = 188mW
**.pEeePowerIncrement = 163mW

**.lpiOnSoA = true

#**.sleepTime = 220us
#**.quietTime = 22ms
#**.wakeTime = 20.5us
#**.refreshTime = 220us
#**.partialWakeTime = 10us
#**.partialSleepTime = 100us
**.sleepTime = 257us
**.quietTime = 22ms
**.wakeTime = 41.6us
**.refreshTime = 220us
**.partialWakeTime = 10us
**.partialSleepTime = 100us

# EPL timing parameters
**.eplPreqPresTime = 8us # delay between end of PReq reception and start of PRes transmission
**.propagationTime = 30ns # prop time for about 10 meters
**.eplCycleTime =  12ms   # Powerlink cycle period
**.TPreq_Pres_CN = 8us
**.TPreq_Pres_MN = 2us
**.switchDelay = 4.5us

[Config eee1_100M]

**.dr = 100Mbps
**.lpiOnSoA = false
**.partialLPI = false

[Config eee2_100M]
extends = eee1_100M
**.lpiOnSoA = false
**.partialLPI = true

[Config eee2_100M_intel]
extends = eee2_100M
#**.numberOfCN = 4
#**.n1 = 2
#**.n2 = 2
**.MN.startTime = 1ms
**.CN_type = "ControlledNodeEPL_intel"
**.MN_type = "ManagingNodeEPL_intel"
**.CNDC_type = "ControlledNodeEPL_DC_intel"
**.SW_type = "EEE_EtherSwitch"
**.switch*.relayUnit.processingTime = 4.5us
**.daisychain = false
# EEE partial power params
**.powerConsumptionPEEE = 188mW
**.pEeePowerIncrement = 146.5mW