#
# To try: ./LANs -f hub.ini
#

[General]
network = PowerLinkBigNetStar_100MB
sim-time-limit = 120s
tkenv-plugin-path = ../../../etc/plugins
**.vector-recording = true

[Config PowerLinkBigNetStar_100MB]
**.PLC.cli.destAddress = ""
**.cli.destAddress = ""
**.Host1.srv.numHost = 1
**.Host2.srv.numHost = 2
**.Host3.srv.numHost = 3
**.Host4.srv.numHost = 4
**.Host5.srv.numHost = 5
**.Host6.srv.numHost = 6
**.Host7.srv.numHost = 7
**.Host8.srv.numHost = 8
**.Host9.srv.numHost = 9
**.Host10.srv.numHost = 10
**.Host11.srv.numHost = 11
**.Host12.srv.numHost = 12
**.Host13.srv.numHost = 13

**.hub5.numHUB = 5



**.cli.reqLength = 45B
**.cli.respLength = 45B
**.srv.reqLength = 45B
**.srv.respLength = 45B

**.cli.Tplt = 10us # time to plot
**.srv.Tplt = 10us # time to plot

# EEE timing parameters

**.DefEEEPower = 0.076

**.HEEEPower = 0.312

**.LEEEPower = -0.312

**.L_TX_EEEPower = -0.203

**.L_RX_EEEPower = -0.264

**.L_TXRX_EEEPower = -0.109

**.L_RXTX_EEEPower = -0.048

# no EEE timing parameters

**.DefNoEEEPower = 0.320

**.HNoEEEPower = 0.068

**.LNoEEEPower = -0.068

# EEE timing parameters

**.HPower = 388

**.LPower = 76

**.IPower = 320


**.Ts = 200us # time to go LPI mode

**.Tq = 20ms # quiet period

**.Tw = 20.5us # time to go ACTIVE mode


# EPL timing parameters

**.TPowCycle = 1.2ms  # Powerlink cycle period

**.TPreq_Pres_CN = 20us # delay between end of PReq reception and start of PRes transmission  

**.TPropag = 20us # stimated signal propagation time

**.result-recording-modes = -vector

include defaults.ini

