#
# To try: ./LANs -f hub.ini
#

[General]
network = PowerLinkBigNet_1000MB
sim-time-limit = 120s
tkenv-plugin-path = ../../../etc/plugins
**.vector-recording = true

[Config PowerLinkBigNet_1000MB]
**.PLC.cli.destAddress = ""
**.cli.destAddress = ""
**.Host1.srv.numHost = 1
**.Host2.srv.numHost = 2
**.Host3.srv.numHost = 3
**.Host4.srv.numHost = 4
**.Host5.srv.numHost = 5
**.Host6.srv.numHost = 6
**.Host7.srv.numHost = 7
**.Host8.srv.numHost = 8
**.Host9.srv.numHost = 9
**.Host10.srv.numHost = 10
**.Host11.srv.numHost = 11
**.Host12.srv.numHost = 12
**.Host13.srv.numHost = 13

**.hub.numHUB = 0
**.hub1.numHUB = 1
**.hub2.numHUB = 2
**.hub3.numHUB = 3
**.hub4.numHUB = 4
**.hub5.numHUB = 5

**.cli.reqLength = 45B
**.cli.respLength = 45B
**.srv.reqLength = 45B
**.srv.respLength = 45B

**.cli.Tplt = 5us # time to plot
**.srv.Tplt = 5us # time to plot

# EEE timing parameters

**.DefEEEPower = 0.117

**.HEEEPower = 0.664

**.LEEEPower = -0.664

**.L_TX_EEEPower = -0.391

**.L_RX_EEEPower = -0.547

**.L_TXRX_EEEPower = -0.273

**.L_RXTX_EEEPower = -0.117

# no EEE timing parameters

**.DefNoEEEPower = 0.777

**.HNoEEEPower = 0.004

**.LNoEEEPower = -0.004

# EEE timing parameters

**.HPower = 781

**.LPower = 117

**.IPower = 777

**.Ts = 20us # time to go LPI mode

**.Tq = 20ms # quiet period

**.Tw = 16.5us # time to go ACTIVE mode


# EPL timing parameters

**.TPowCycle = 0.13ms  # Powerlink cycle period

**.TPreq_Pres_CN = 2.5us # delay between end of PReq reception and start of PRes transmission    

**.TPropag = 2.5us # stimated signal propagation time

**.result-recording-modes = -vector

include defaults.ini


